Version 4
SHEET 1 2612 1212
WIRE 1120 -1056 1120 -1120
WIRE 1120 -1056 1040 -1056
WIRE 1200 -1056 1200 -1120
WIRE 1296 -1056 1200 -1056
WIRE 1120 -1024 1120 -1056
WIRE 1200 -1024 1200 -1056
WIRE 1424 -960 1328 -960
WIRE 1296 -896 1296 -1056
WIRE 1328 -896 1328 -960
WIRE 1312 -784 1312 -832
WIRE 1424 -784 1424 -960
WIRE 1424 -784 1312 -784
WIRE 1312 -752 1312 -784
WIRE 256 -688 128 -688
WIRE 800 -688 672 -688
WIRE 1008 -688 864 -688
WIRE 128 -640 128 -688
WIRE 128 -640 48 -640
WIRE 160 -640 128 -640
WIRE 256 -640 224 -640
WIRE 528 -592 480 -592
WIRE 672 -592 672 -688
WIRE 672 -592 608 -592
WIRE 704 -592 672 -592
WIRE 816 -592 784 -592
WIRE 864 -592 816 -592
WIRE 1008 -576 1008 -688
WIRE 1008 -576 928 -576
WIRE 1024 -576 1008 -576
WIRE 1152 -576 1024 -576
WIRE 1312 -576 1312 -672
WIRE 1312 -576 1232 -576
WIRE 1392 -576 1312 -576
WIRE 864 -560 848 -560
WIRE 1600 -560 1456 -560
WIRE 1712 -560 1664 -560
WIRE 1872 -560 1792 -560
WIRE 1936 -560 1872 -560
WIRE 2064 -560 2016 -560
WIRE 816 -544 816 -592
WIRE 1392 -544 1312 -544
WIRE 1600 -528 1600 -560
WIRE 1664 -528 1664 -560
WIRE 1664 -528 1600 -528
WIRE 2064 -496 2064 -560
WIRE 2192 -496 2064 -496
WIRE 2352 -480 2256 -480
WIRE 2400 -480 2352 -480
WIRE 848 -464 848 -560
WIRE 1024 -464 1024 -496
WIRE 1024 -464 848 -464
WIRE 1312 -464 1312 -544
WIRE 1408 -464 1312 -464
WIRE 1600 -464 1600 -528
WIRE 1600 -464 1488 -464
WIRE 2192 -464 2112 -464
WIRE 1024 -448 1024 -464
WIRE 1664 -432 1664 -528
WIRE 1728 -432 1664 -432
WIRE 1872 -432 1792 -432
WIRE 1936 -432 1872 -432
WIRE 2064 -432 2064 -496
WIRE 2064 -432 2000 -432
WIRE 2112 -400 2112 -464
WIRE 2352 -400 2352 -480
WIRE 2352 -400 2112 -400
WIRE 1312 -352 1312 -384
WIRE 752 -336 448 -336
WIRE 1072 -336 816 -336
WIRE -80 -304 -112 -304
WIRE -112 -272 -112 -304
WIRE 448 -208 448 -336
WIRE 512 -208 448 -208
WIRE 816 -208 816 -336
WIRE 832 -208 816 -208
WIRE 1136 -208 992 -208
WIRE -112 -176 -112 -192
WIRE 752 -160 752 -336
WIRE 752 -160 688 -160
WIRE 832 -160 672 -208
WIRE 1072 -160 1072 -336
WIRE 1072 -160 1008 -160
WIRE 1280 -16 400 -16
WIRE 464 64 464 48
WIRE -192 80 -192 64
WIRE 688 112 576 112
WIRE 32 128 -80 128
WIRE 464 160 464 144
WIRE 576 160 576 112
WIRE 576 160 464 160
WIRE 592 160 576 160
WIRE 688 160 656 160
WIRE -192 176 -192 160
WIRE -80 176 -80 128
WIRE -80 176 -192 176
WIRE -64 176 -80 176
WIRE 32 176 0 176
WIRE 1280 192 1280 -16
WIRE 944 208 912 208
WIRE 1072 208 944 208
WIRE 1376 208 1344 208
WIRE 1504 208 1456 208
WIRE 1680 208 1504 208
WIRE 288 224 256 224
WIRE 400 224 400 -16
WIRE 400 224 288 224
WIRE 688 224 656 224
WIRE 1280 224 1136 224
WIRE 1840 224 1744 224
WIRE 32 240 0 240
WIRE 720 256 688 256
WIRE 32 272 -48 272
WIRE 960 272 912 272
WIRE 304 288 256 288
WIRE 688 288 688 256
WIRE 688 288 304 288
WIRE 688 336 608 336
WIRE 32 352 -48 352
FLAG -112 -176 0
FLAG -80 -304 clock
FLAG 288 224 Q1
FLAG -48 272 clock
FLAG 0 240 0
FLAG 304 288 _Q1
FLAG 944 208 Q2
FLAG 656 224 0
FLAG 960 272 _Q2
FLAG 1136 -208 data
FLAG 512 -160 clock
FLAG 1072 240 data
FLAG 1504 272 0
FLAG -192 64 FtoV
FLAG -48 352 FtoV
FLAG 464 48 FtoV
FLAG 608 336 FtoV
FLAG 528 -864 Vcc
FLAG 48 -720 Vcc
FLAG 256 -464 Vcc
FLAG 528 -784 0
FLAG 256 -576 0
FLAG 256 -544 clock
FLAG 816 -480 0
FLAG 320 -864 V+
FLAG 896 -544 V+
FLAG 416 -864 V-
FLAG 896 -608 V-
FLAG 320 -784 0
FLAG 416 -784 0
FLAG 1024 -368 0
FLAG 2400 -480 FtoV
FLAG 1680 256 Vcc
FLAG 1872 -496 0
FLAG 1872 -352 0
FLAG 2224 -512 V-
FLAG 2224 -448 V+
FLAG 1840 224 output
FLAG 1424 -528 V+
FLAG 1424 -592 V-
FLAG 1312 -352 0
FLAG 1344 -864 V+
FLAG 1280 -864 V-
FLAG 1376 -1056 0
FLAG 1040 -1056 Vcc
SYMBOL voltage -112 -288 R0
WINDOW 123 0 0 Left 0
WINDOW 39 0 0 Left 0
SYMATTR InstName V2
SYMATTR Value PULSE(0 5 0 1p 1p 50u 100u)
SYMBOL res -208 64 R0
SYMATTR InstName R3
SYMATTR Value 8k
SYMBOL cap -64 192 R270
WINDOW 0 32 32 VTop 2
WINDOW 3 0 32 VBottom 2
SYMATTR InstName C2
SYMATTR Value 3.3n
SYMBOL 74hc123A 144 64 R0
SYMATTR InstName U2
SYMATTR SpiceLine VCC=5  SPEED=1.0  TRIPDT=10e-9
SYMATTR Value 74HC123
SYMBOL res 448 48 R0
SYMATTR InstName R1
SYMATTR Value 16k
SYMBOL cap 592 176 R270
WINDOW 0 32 32 VTop 2
WINDOW 3 0 32 VBottom 2
SYMATTR InstName C1
SYMATTR Value 3.3n
SYMBOL 74hc123A 800 48 R0
SYMATTR InstName U5
SYMATTR SpiceLine VCC=5  SPEED=1.0  TRIPDT=10e-9
SYMATTR Value 74HC123
SYMBOL Digital\\dflop 592 -256 R0
WINDOW 3 8 12 Left 2
SYMATTR Value Vhigh=5
SYMATTR InstName A1
SYMBOL Digital\\dflop 912 -256 R0
WINDOW 3 8 12 Left 2
SYMATTR Value Vhigh=5
SYMATTR InstName A2
SYMBOL Digital\\or 1312 160 R0
SYMATTR InstName A4
SYMATTR SpiceLine Vhigh=5
SYMBOL Digital\\and 1104 176 R0
SYMATTR InstName A3
SYMATTR SpiceLine Vhigh=5
SYMBOL res 1472 192 R90
WINDOW 0 0 56 VBottom 2
WINDOW 3 32 56 VTop 2
SYMATTR InstName R2
SYMATTR Value 470
SYMBOL cap 1488 208 R0
SYMATTR InstName C3
SYMATTR Value 1n
SYMBOL Digital\\and 1712 176 R0
SYMATTR InstName A5
SYMATTR SpiceLine Vhigh=5
SYMBOL 74hc123A 368 -752 R0
SYMATTR InstName U1
SYMATTR Value 74HC123
SYMBOL cap 224 -656 R90
WINDOW 0 0 32 VBottom 2
WINDOW 3 32 32 VTop 2
SYMATTR InstName C4
SYMATTR Value 8.2nF
SYMBOL res 32 -736 R0
SYMATTR InstName R4
SYMATTR Value 10k
SYMBOL voltage 528 -880 R0
SYMATTR InstName V1
SYMATTR Value 5
SYMBOL res 624 -608 R90
WINDOW 0 0 56 VBottom 2
WINDOW 3 32 56 VTop 2
SYMATTR InstName R5
SYMATTR Value 1.6k
SYMBOL res 800 -608 R90
WINDOW 0 0 56 VBottom 2
WINDOW 3 32 56 VTop 2
SYMATTR InstName R6
SYMATTR Value 1.6k
SYMBOL cap 864 -704 R90
WINDOW 0 0 32 VBottom 2
WINDOW 3 32 32 VTop 2
SYMATTR InstName C5
SYMATTR Value 0.1µ
SYMBOL Opamps\\OP07 896 -512 M180
SYMATTR InstName U3
SYMBOL cap 800 -544 R0
SYMATTR InstName C6
SYMATTR Value 0.1µ
SYMBOL voltage 320 -880 R0
SYMATTR InstName V4
SYMATTR Value 12
SYMBOL voltage 416 -768 R180
WINDOW 0 24 96 Left 2
WINDOW 3 -51 16 Left 2
SYMATTR InstName V5
SYMATTR Value 12
SYMBOL res 1008 -592 R0
SYMATTR InstName R7
SYMATTR Value 1k
SYMBOL res 1008 -464 R0
SYMATTR InstName R8
SYMATTR Value 100k
SYMBOL res 1808 -576 R90
WINDOW 0 0 56 VBottom 2
WINDOW 3 32 56 VTop 2
SYMATTR InstName R9
SYMATTR Value 10k
SYMBOL res 2032 -576 R90
WINDOW 0 0 56 VBottom 2
WINDOW 3 32 56 VTop 2
SYMATTR InstName R10
SYMATTR Value 10k
SYMBOL res 1888 -336 R180
WINDOW 0 36 76 Left 2
WINDOW 3 36 40 Left 2
SYMATTR InstName R11
SYMATTR Value 5k
SYMBOL cap 1856 -560 R0
SYMATTR InstName C7
SYMATTR Value 2n
SYMBOL cap 1792 -448 R90
WINDOW 0 0 32 VBottom 2
WINDOW 3 32 32 VTop 2
SYMATTR InstName C8
SYMATTR Value 1n
SYMBOL cap 2000 -448 R90
WINDOW 0 0 32 VBottom 2
WINDOW 3 32 32 VTop 2
SYMATTR InstName C9
SYMATTR Value 1n
SYMBOL Opamps\\OP07 2224 -416 M180
SYMATTR InstName U4
SYMBOL res 1248 -592 R90
WINDOW 0 0 56 VBottom 2
WINDOW 3 32 56 VTop 2
SYMATTR InstName R12
SYMATTR Value 1k
SYMBOL res 1296 -768 R0
SYMATTR InstName R13
SYMATTR Value 1k
SYMBOL Opamps\\OP07 1424 -496 M180
SYMATTR InstName U6
SYMBOL res 1504 -480 R90
WINDOW 0 0 56 VBottom 2
WINDOW 3 32 56 VTop 2
SYMATTR InstName R14
SYMATTR Value 100k
SYMBOL res 1296 -480 R0
SYMATTR InstName R15
SYMATTR Value 100k
SYMBOL Opamps\\OP07 1376 -864 R90
SYMATTR InstName U7
SYMBOL res 1392 -1072 R90
WINDOW 0 0 56 VBottom 2
WINDOW 3 32 56 VTop 2
SYMATTR InstName R16
SYMATTR Value 1.3k
SYMBOL res 1216 -1136 R90
WINDOW 0 0 56 VBottom 2
WINDOW 3 32 56 VTop 2
SYMATTR InstName R17
SYMATTR Value 7.5k
SYMBOL res 1216 -1040 R90
WINDOW 0 0 56 VBottom 2
WINDOW 3 32 56 VTop 2
SYMATTR InstName R18
SYMATTR Value 7.5k
TEXT -336 424 Left 2 !.include 74hc.lib
TEXT -336 520 Left 2 !.tran 5m
TEXT -336 384 Left 2 ;Libraries
TEXT -336 480 Left 2 ;Simulation
