Version 4
SHEET 1 2548 680
WIRE 976 -192 784 -192
WIRE 1120 -192 1040 -192
WIRE 400 -144 256 -144
WIRE 256 -96 256 -144
WIRE 256 -96 192 -96
WIRE 288 -96 256 -96
WIRE 400 -96 352 -96
WIRE 672 -48 624 -48
WIRE 784 -48 784 -192
WIRE 784 -48 752 -48
WIRE 800 -48 784 -48
WIRE 912 -48 880 -48
WIRE 976 -48 912 -48
WIRE 1120 -32 1120 -192
WIRE 1120 -32 1040 -32
WIRE 1168 -32 1120 -32
WIRE 1296 -32 1168 -32
WIRE 1424 -32 1376 -32
WIRE 976 -16 960 -16
WIRE 912 16 912 -48
WIRE 1424 32 1424 -32
WIRE 1504 32 1424 32
WIRE 1696 48 1568 48
WIRE 1712 48 1696 48
WIRE 1760 48 1712 48
WIRE 1888 48 1840 48
WIRE 1936 48 1888 48
WIRE 2080 48 2016 48
WIRE 1504 64 1472 64
WIRE 1888 64 1888 48
WIRE 960 96 960 -16
WIRE 1168 96 1168 48
WIRE 1168 96 960 96
WIRE 1296 96 1248 96
WIRE 1424 96 1424 32
WIRE 1424 96 1376 96
WIRE 2080 128 2080 48
WIRE 2208 128 2080 128
WIRE 1248 144 1248 96
WIRE 1472 144 1472 64
WIRE 1552 144 1472 144
WIRE 1696 144 1696 48
WIRE 1696 144 1632 144
WIRE 1472 160 1472 144
WIRE 1712 192 1712 48
WIRE 1776 192 1712 192
WIRE 1904 192 1840 192
WIRE 1968 192 1904 192
WIRE 2080 192 2080 128
WIRE 2080 192 2032 192
FLAG 80 192 0
FLAG -32 192 0
FLAG 400 -32 0
FLAG -32 112 Vcc
FLAG 192 -176 Vcc
FLAG 400 80 Vcc
FLAG 80 112 inp
FLAG 400 0 inp
FLAG 912 80 0
FLAG 1168 176 0
FLAG 752 288 0
FLAG 896 288 0
FLAG 752 208 V+
FLAG 1008 0 V+
FLAG 896 208 V-
FLAG 1008 -64 V-
FLAG 1888 128 0
FLAG 1904 272 0
FLAG 1472 240 0
FLAG 1536 80 V+
FLAG 1536 16 V-
FLAG 1248 224 0
SYMBOL voltage -32 96 R0
WINDOW 123 0 0 Left 0
WINDOW 39 0 0 Left 0
SYMATTR InstName V1
SYMATTR Value 5
SYMBOL voltage 80 96 R0
WINDOW 123 0 0 Left 0
WINDOW 39 0 0 Left 0
SYMATTR InstName V2
SYMATTR Value PULSE(0 5 0 1p 1p 50u 100u)
SYMBOL 74hc123A 512 -208 R0
SYMATTR InstName U1
SYMATTR Value 74HC123
SYMBOL cap 352 -112 R90
WINDOW 0 0 32 VBottom 2
WINDOW 3 32 32 VTop 2
SYMATTR InstName C1
SYMATTR Value 8.2nF
SYMBOL res 208 -80 R180
WINDOW 0 36 76 Left 2
WINDOW 3 36 40 Left 2
SYMATTR InstName R1
SYMATTR Value 10k
SYMBOL res 768 -64 R90
WINDOW 0 0 56 VBottom 2
WINDOW 3 32 56 VTop 2
SYMATTR InstName R2
SYMATTR Value 15.9k
SYMBOL res 896 -64 R90
WINDOW 0 0 56 VBottom 2
WINDOW 3 32 56 VTop 2
SYMATTR InstName R3
SYMATTR Value 15.9k
SYMBOL Opamps\\OP07 1008 32 M180
SYMATTR InstName U2
SYMBOL cap 896 16 R0
WINDOW 3 -69 65 Left 2
SYMATTR Value 0.01µ
SYMATTR InstName C2
SYMBOL cap 1040 -208 R90
WINDOW 0 0 32 VBottom 2
WINDOW 3 32 32 VTop 2
SYMATTR InstName C3
SYMATTR Value 0.01µF
SYMBOL res 1184 64 R180
WINDOW 0 36 76 Left 2
WINDOW 3 36 40 Left 2
SYMATTR InstName R4
SYMATTR Value 1k
SYMBOL res 1184 192 R180
WINDOW 0 36 76 Left 2
WINDOW 3 36 40 Left 2
SYMATTR InstName R5
SYMATTR Value 100k
SYMBOL voltage 752 192 R0
SYMATTR InstName V3
SYMATTR Value 12
SYMBOL voltage 896 304 R180
WINDOW 0 24 96 Left 2
WINDOW 3 24 16 Left 2
SYMATTR InstName V4
SYMATTR Value 12
SYMBOL res 1856 32 R90
WINDOW 0 0 56 VBottom 2
WINDOW 3 32 56 VTop 2
SYMATTR InstName R6
SYMATTR Value 10k
SYMBOL res 2032 32 R90
WINDOW 0 0 56 VBottom 2
WINDOW 3 32 56 VTop 2
SYMATTR InstName R7
SYMATTR Value 10k
SYMBOL cap 1872 64 R0
SYMATTR InstName C4
SYMATTR Value 2n
SYMBOL cap 1840 176 R90
WINDOW 0 0 32 VBottom 2
WINDOW 3 32 32 VTop 2
SYMATTR InstName C5
SYMATTR Value 1n
SYMBOL cap 2032 176 R90
WINDOW 0 0 32 VBottom 2
WINDOW 3 32 32 VTop 2
SYMATTR InstName C6
SYMATTR Value 1n
SYMBOL res 1920 288 R180
WINDOW 0 36 76 Left 2
WINDOW 3 36 40 Left 2
SYMATTR InstName R8
SYMATTR Value 5k
SYMBOL res 1392 -48 R90
WINDOW 0 0 56 VBottom 2
WINDOW 3 32 56 VTop 2
SYMATTR InstName R9
SYMATTR Value 1k
SYMBOL res 1392 80 R90
WINDOW 0 0 56 VBottom 2
WINDOW 3 32 56 VTop 2
SYMATTR InstName R10
SYMATTR Value 1k
SYMBOL Opamps\\OP07 1536 112 M180
SYMATTR InstName U3
SYMBOL res 1648 128 R90
WINDOW 0 0 56 VBottom 2
WINDOW 3 32 56 VTop 2
SYMATTR InstName R11
SYMATTR Value 100k
SYMBOL res 1488 256 R180
WINDOW 0 36 76 Left 2
WINDOW 3 36 40 Left 2
SYMATTR InstName R12
SYMATTR Value 100k
SYMBOL voltage 1248 128 R0
SYMATTR InstName V5
SYMATTR Value 1.3
TEXT -64 216 Left 2 !.tran 2m
TEXT -48 256 Left 2 !.include 74hc.lib
